!-Generator IDFEditor 1.53
!-Option SortedOrder UseSpecialFormat

!-NOTE: All comments with '!-' are ignored by the IDFEditor and are generated automatically.
!-      Use '!' comments if they need to be retained when using the IDFEditor.


!-   ===========  ALL OBJECTS IN CLASS: VERSION ===========

Version,23.2;

!-   ===========  ALL OBJECTS IN CLASS: SIMULATIONCONTROL ===========


SimulationControl,
    Yes,                     !- Do Zone Sizing Calculation
    Yes,                     !- Do System Sizing Calculation
    Yes,                     !- Do Plant Sizing Calculation
    No,                      !- Run Simulation for Sizing Periods
    Yes,                     !- Run Simulation for Weather File Run Periods
    No,                      !- Do HVAC Sizing Simulation for Sizing Periods
    1;                       !- Maximum Number of HVAC Sizing Simulation Passes


!-   ===========  ALL OBJECTS IN CLASS: BUILDING ===========

Building,
    DOE Ref 1980-2004-LargeOffice-ASHRAE 169-2006-1A created: 2017-12-13 13:04:05 -0700,  !- Name
    0,                       !- North Axis {deg}
    City,                    !- Terrain
    0.04,                    !- Loads Convergence Tolerance Value {W}
    0.2,                     !- Temperature Convergence Tolerance Value {deltaC}
    FullInteriorAndExterior, !- Solar Distribution
    25,                      !- Maximum Number of Warmup Days
    6;                       !- Minimum Number of Warmup Days


!-   ===========  ALL OBJECTS IN CLASS: SHADOWCALCULATION ===========

ShadowCalculation,
    PolygonClipping,         !- Shading Calculation Method
    Periodic,                !- Shading Calculation Update Frequency Method
    7,                       !- Shading Calculation Update Frequency
    15000;                   !- Maximum Figures in Shadow Overlap Calculations


!-   ===========  ALL OBJECTS IN CLASS: SURFACECONVECTIONALGORITHM:INSIDE ===========

SurfaceConvectionAlgorithm:Inside,TARP;

!-   ===========  ALL OBJECTS IN CLASS: SURFACECONVECTIONALGORITHM:OUTSIDE ===========

SurfaceConvectionAlgorithm:Outside,DOE-2;

!-   ===========  ALL OBJECTS IN CLASS: HEATBALANCEALGORITHM ===========

HeatBalanceAlgorithm,ConductionTransferFunction,200;

!-   ===========  ALL OBJECTS IN CLASS: TIMESTEP ===========

Timestep,6;

!-   ===========  ALL OBJECTS IN CLASS: CONVERGENCELIMITS ===========


ConvergenceLimits,
    2,                       !- Minimum System Timestep {minutes}
    25;                      !- Maximum HVAC Iterations


!-   ===========  ALL OBJECTS IN CLASS: SITE:LOCATION ===========

Site:Location,
    MIAMI INTL AP,           !- Name
    25.817,                  !- Latitude {deg}
    -80.3,                   !- Longitude {deg}
    -5,                      !- Time Zone {hr}
    11;                      !- Elevation {m}


!-   ===========  ALL OBJECTS IN CLASS: SIZINGPERIOD:DESIGNDAY ===========

SizingPeriod:DesignDay,
    Miami Intl Ap Ann Clg .4% Condns DB=>MWB,  !- Name
    7,                       !- Month
    21,                      !- Day of Month
    SummerDesignDay,         !- Day Type
    33.2,                    !- Maximum Dry-Bulb Temperature {C}
    6.7,                     !- Daily Dry-Bulb Temperature Range {deltaC}
    DefaultMultipliers,      !- Dry-Bulb Temperature Range Modifier Type
    ,                        !- Dry-Bulb Temperature Range Modifier Day Schedule Name
    Wetbulb,                 !- Humidity Condition Type
    25.3,                    !- Wetbulb or DewPoint at Maximum Dry-Bulb {C}
    ,                        !- Humidity Condition Day Schedule Name
    ,                        !- Humidity Ratio at Maximum Dry-Bulb {kgWater/kgDryAir}
    ,                        !- Enthalpy at Maximum Dry-Bulb {J/kg}
    ,                        !- Daily Wet-Bulb Temperature Range {deltaC}
    101193,                  !- Barometric Pressure {Pa}
    4.5,                     !- Wind Speed {m/s}
    140,                     !- Wind Direction {deg}
    No,                      !- Rain Indicator
    No,                      !- Snow Indicator
    No,                      !- Daylight Saving Time Indicator
    ASHRAETau,               !- Solar Model Indicator
    ,                        !- Beam Solar Day Schedule Name
    ,                        !- Diffuse Solar Day Schedule Name
    0.528,                   !- ASHRAE Clear Sky Optical Depth for Beam Irradiance (taub) {dimensionless}
    1.905;                   !- ASHRAE Clear Sky Optical Depth for Diffuse Irradiance (taud) {dimensionless}

SizingPeriod:DesignDay,
    Miami Intl Ap Ann Htg 99.6% Condns DB,  !- Name
    1,                       !- Month
    21,                      !- Day of Month
    WinterDesignDay,         !- Day Type
    8.7,                     !- Maximum Dry-Bulb Temperature {C}
    0,                       !- Daily Dry-Bulb Temperature Range {deltaC}
    DefaultMultipliers,      !- Dry-Bulb Temperature Range Modifier Type
    ,                        !- Dry-Bulb Temperature Range Modifier Day Schedule Name
    Wetbulb,                 !- Humidity Condition Type
    8.7,                     !- Wetbulb or DewPoint at Maximum Dry-Bulb {C}
    ,                        !- Humidity Condition Day Schedule Name
    ,                        !- Humidity Ratio at Maximum Dry-Bulb {kgWater/kgDryAir}
    ,                        !- Enthalpy at Maximum Dry-Bulb {J/kg}
    ,                        !- Daily Wet-Bulb Temperature Range {deltaC}
    101193,                  !- Barometric Pressure {Pa}
    3.8,                     !- Wind Speed {m/s}
    340,                     !- Wind Direction {deg}
    No,                      !- Rain Indicator
    No,                      !- Snow Indicator
    No,                      !- Daylight Saving Time Indicator
    ASHRAEClearSky,          !- Solar Model Indicator
    ,                        !- Beam Solar Day Schedule Name
    ,                        !- Diffuse Solar Day Schedule Name
    ,                        !- ASHRAE Clear Sky Optical Depth for Beam Irradiance (taub) {dimensionless}
    ,                        !- ASHRAE Clear Sky Optical Depth for Diffuse Irradiance (taud) {dimensionless}
    0;                       !- Sky Clearness


!-   ===========  ALL OBJECTS IN CLASS: RUNPERIOD ===========

RunPeriod,
    Run Period 1,            !- Name
    8,                       !- Begin Month
    1,                       !- Begin Day of Month
    2018,                    !- Begin Year
    8,                       !- End Month
    31,                      !- End Day of Month
    2018,                    !- End Year
    Sunday,                  !- Day of Week for Start Day
    No,                      !- Use Weather File Holidays and Special Days
    No,                      !- Use Weather File Daylight Saving Period
    No,                      !- Apply Weekend Holiday Rule
    Yes,                     !- Use Weather File Rain Indicators
    Yes;                     !- Use Weather File Snow Indicators


!-   ===========  ALL OBJECTS IN CLASS: SITE:GROUNDTEMPERATURE:BUILDINGSURFACE ===========

Site:GroundTemperature:BuildingSurface,22.509,22.645,22.781,22.956,23.052,23.08,23.116,23.108,23.133,23.139,23.077,22.913;

!-   ===========  ALL OBJECTS IN CLASS: SITE:WATERMAINSTEMPERATURE ===========


Site:WaterMainsTemperature,
    Correlation,             !- Calculation Method
    ,                        !- Temperature Schedule Name
    24.31,                   !- Annual Average Outdoor Air Temperature {C}
    8;                       !- Maximum Difference In Monthly Average Outdoor Air Temperatures {deltaC}


!-   ===========  ALL OBJECTS IN CLASS: SCHEDULETYPELIMITS ===========

ScheduleTypeLimits,
    Basement ZN Thermostat Schedule Type Limits,  !- Name
    0,                       !- Lower Limit Value
    4,                       !- Upper Limit Value
    DISCRETE;                !- Numeric Type

ScheduleTypeLimits,
    Temperature,             !- Name
    ,                        !- Lower Limit Value
    ,                        !- Upper Limit Value
    Continuous,              !- Numeric Type
    temperature;             !- Unit Type

ScheduleTypeLimits,
    Core_bottom ZN Thermostat Schedule Type Limits,  !- Name
    0,                       !- Lower Limit Value
    4,                       !- Upper Limit Value
    DISCRETE;                !- Numeric Type

ScheduleTypeLimits,
    Core_mid ZN Thermostat Schedule Type Limits,  !- Name
    0,                       !- Lower Limit Value
    4,                       !- Upper Limit Value
    DISCRETE;                !- Numeric Type

ScheduleTypeLimits,
    Core_top ZN Thermostat Schedule Type Limits,  !- Name
    0,                       !- Lower Limit Value
    4,                       !- Upper Limit Value
    DISCRETE;                !- Numeric Type

ScheduleTypeLimits,
    Perimeter_bot_ZN_1 ZN Thermostat Schedule Type Limits,  !- Name
    0,                       !- Lower Limit Value
    4,                       !- Upper Limit Value
    DISCRETE;                !- Numeric Type

ScheduleTypeLimits,
    Perimeter_bot_ZN_2 ZN Thermostat Schedule Type Limits,  !- Name
    0,                       !- Lower Limit Value
    4,                       !- Upper Limit Value
    DISCRETE;                !- Numeric Type

ScheduleTypeLimits,
    Perimeter_bot_ZN_3 ZN Thermostat Schedule Type Limits,  !- Name
    0,                       !- Lower Limit Value
    4,                       !- Upper Limit Value
    DISCRETE;                !- Numeric Type

ScheduleTypeLimits,
    Perimeter_bot_ZN_4 ZN Thermostat Schedule Type Limits,  !- Name
    0,                       !- Lower Limit Value
    4,                       !- Upper Limit Value
    DISCRETE;                !- Numeric Type

ScheduleTypeLimits,
    Perimeter_mid_ZN_1 ZN Thermostat Schedule Type Limits,  !- Name
    0,                       !- Lower Limit Value
    4,                       !- Upper Limit Value
    DISCRETE;                !- Numeric Type

ScheduleTypeLimits,
    Perimeter_mid_ZN_2 ZN Thermostat Schedule Type Limits,  !- Name
    0,                       !- Lower Limit Value
    4,                       !- Upper Limit Value
    DISCRETE;                !- Numeric Type

ScheduleTypeLimits,
    Perimeter_mid_ZN_3 ZN Thermostat Schedule Type Limits,  !- Name
    0,                       !- Lower Limit Value
    4,                       !- Upper Limit Value
    DISCRETE;                !- Numeric Type

ScheduleTypeLimits,
    Perimeter_mid_ZN_4 ZN Thermostat Schedule Type Limits,  !- Name
    0,                       !- Lower Limit Value
    4,                       !- Upper Limit Value
    DISCRETE;                !- Numeric Type

ScheduleTypeLimits,
    Perimeter_top_ZN_1 ZN Thermostat Schedule Type Limits,  !- Name
    0,                       !- Lower Limit Value
    4,                       !- Upper Limit Value
    DISCRETE;                !- Numeric Type

ScheduleTypeLimits,
    Perimeter_top_ZN_2 ZN Thermostat Schedule Type Limits,  !- Name
    0,                       !- Lower Limit Value
    4,                       !- Upper Limit Value
    DISCRETE;                !- Numeric Type

ScheduleTypeLimits,
    Perimeter_top_ZN_3 ZN Thermostat Schedule Type Limits,  !- Name
    0,                       !- Lower Limit Value
    4,                       !- Upper Limit Value
    DISCRETE;                !- Numeric Type

ScheduleTypeLimits,
    Perimeter_top_ZN_4 ZN Thermostat Schedule Type Limits,  !- Name
    0,                       !- Lower Limit Value
    4,                       !- Upper Limit Value
    DISCRETE;                !- Numeric Type

ScheduleTypeLimits,
    ActivityLevel,           !- Name
    0,                       !- Lower Limit Value
    ,                        !- Upper Limit Value
    Continuous,              !- Numeric Type
    activitylevel;           !- Unit Type

ScheduleTypeLimits,
    Any Number;              !- Name

ScheduleTypeLimits,
    Fractional,              !- Name
    0,                       !- Lower Limit Value
    1,                       !- Upper Limit Value
    Continuous;              !- Numeric Type

ScheduleTypeLimits,
    OnOff,                   !- Name
    0,                       !- Lower Limit Value
    1,                       !- Upper Limit Value
    Discrete,                !- Numeric Type
    availability;            !- Unit Type

ScheduleTypeLimits,
    Temperature Schedule Type Limits,  !- Name
    0,                       !- Lower Limit Value
    100,                     !- Upper Limit Value
    Continuous,              !- Numeric Type
    temperature;             !- Unit Type

ScheduleTypeLimits,
    Temperature Schedule Type Limits 1,  !- Name
    0,                       !- Lower Limit Value
    100,                     !- Upper Limit Value
    Continuous,              !- Numeric Type
    temperature;             !- Unit Type

ScheduleTypeLimits,
    Velocity,                !- Name
    0,                       !- Lower Limit Value
    ,                        !- Upper Limit Value
    Continuous,              !- Numeric Type
    velocity;                !- Unit Type


!-   ===========  ALL OBJECTS IN CLASS: SCHEDULE:DAY:INTERVAL ===========

Schedule:Day:Interval,
    Large Office HtgSetp SmrDsn|Sun Day,  !- Name
    Temperature,             !- Schedule Type Limits Name
    No,                      !- Interpolate to Timestep
    00:15,                   !- Time 1 {hh:mm}
    15.6,                    !- Value Until Time 1
    00:30,                   !- Time 2 {hh:mm}
    15.6,                    !- Value Until Time 2
    00:45,                   !- Time 3 {hh:mm}
    15.6,                    !- Value Until Time 3
    01:00,                   !- Time 4 {hh:mm}
    15.6,                    !- Value Until Time 4
    01:15,                   !- Time 5 {hh:mm}
    15.6,                    !- Value Until Time 5
    01:30,                   !- Time 6 {hh:mm}
    15.6,                    !- Value Until Time 6
    01:45,                   !- Time 7 {hh:mm}
    15.6,                    !- Value Until Time 7
    02:00,                   !- Time 8 {hh:mm}
    15.6,                    !- Value Until Time 8
    02:15,                   !- Time 9 {hh:mm}
    15.6,                    !- Value Until Time 9
    02:30,                   !- Time 10 {hh:mm}
    15.6,                    !- Value Until Time 10
    02:45,                   !- Time 11 {hh:mm}
    15.6,                    !- Value Until Time 11
    03:00,                   !- Time 12 {hh:mm}
    15.6,                    !- Value Until Time 12
    03:15,                   !- Time 13 {hh:mm}
    15.6,                    !- Value Until Time 13
    03:30,                   !- Time 14 {hh:mm}
    15.6,                    !- Value Until Time 14
    03:45,                   !- Time 15 {hh:mm}
    15.6,                    !- Value Until Time 15
    04:00,                   !- Time 16 {hh:mm}
    15.6,                    !- Value Until Time 16
    04:15,                   !- Time 17 {hh:mm}
    15.6,                    !- Value Until Time 17
    04:30,                   !- Time 18 {hh:mm}
    15.6,                    !- Value Until Time 18
    04:45,                   !- Time 19 {hh:mm}
    15.6,                    !- Value Until Time 19
    05:00,                   !- Time 20 {hh:mm}
    15.6,                    !- Value Until Time 20
    05:15,                   !- Time 21 {hh:mm}
    15.6,                    !- Value Until Time 21
    05:30,                   !- Time 22 {hh:mm}
    15.6,                    !- Value Until Time 22
    05:45,                   !- Time 23 {hh:mm}
    15.6,                    !- Value Until Time 23
    06:00,                   !- Time 24 {hh:mm}
    15.6,                    !- Value Until Time 24
    06:15,                   !- Time 25 {hh:mm}
    15.6,                    !- Value Until Time 25
    06:30,                   !- Time 26 {hh:mm}
    15.6,                    !- Value Until Time 26
    06:45,                   !- Time 27 {hh:mm}
    15.6,                    !- Value Until Time 27
    07:00,                   !- Time 28 {hh:mm}
    15.6,                    !- Value Until Time 28
    07:15,                   !- Time 29 {hh:mm}
    15.6,                    !- Value Until Time 29
    07:30,                   !- Time 30 {hh:mm}
    15.6,                    !- Value Until Time 30
    07:45,                   !- Time 31 {hh:mm}
    15.6,                    !- Value Until Time 31
    08:00,                   !- Time 32 {hh:mm}
    15.6,                    !- Value Until Time 32
    08:15,                   !- Time 33 {hh:mm}
    15.6,                    !- Value Until Time 33
    08:30,                   !- Time 34 {hh:mm}
    15.6,                    !- Value Until Time 34
    08:45,                   !- Time 35 {hh:mm}
    15.6,                    !- Value Until Time 35
    09:00,                   !- Time 36 {hh:mm}
    15.6,                    !- Value Until Time 36
    09:15,                   !- Time 37 {hh:mm}
    15.6,                    !- Value Until Time 37
    09:30,                   !- Time 38 {hh:mm}
    15.6,                    !- Value Until Time 38
    09:45,                   !- Time 39 {hh:mm}
    15.6,                    !- Value Until Time 39
    10:00,                   !- Time 40 {hh:mm}
    15.6,                    !- Value Until Time 40
    10:15,                   !- Time 41 {hh:mm}
    15.6,                    !- Value Until Time 41
    10:30,                   !- Time 42 {hh:mm}
    15.6,                    !- Value Until Time 42
    10:45,                   !- Time 43 {hh:mm}
    15.6,                    !- Value Until Time 43
    11:00,                   !- Time 44 {hh:mm}
    15.6,                    !- Value Until Time 44
    11:15,                   !- Time 45 {hh:mm}
    15.6,                    !- Value Until Time 45
    11:30,                   !- Time 46 {hh:mm}
    15.6,                    !- Value Until Time 46
    11:45,                   !- Time 47 {hh:mm}
    15.6,                    !- Value Until Time 47
    12:00,                   !- Time 48 {hh:mm}
    15.6,                    !- Value Until Time 48
    12:15,                   !- Time 49 {hh:mm}
    15.6,                    !- Value Until Time 49
    12:30,                   !- Time 50 {hh:mm}
    15.6,                    !- Value Until Time 50
    12:45,                   !- Time 51 {hh:mm}
    15.6,                    !- Value Until Time 51
    13:00,                   !- Time 52 {hh:mm}
    15.6,                    !- Value Until Time 52
    13:15,                   !- Time 53 {hh:mm}
    15.6,                    !- Value Until Time 53
    13:30,                   !- Time 54 {hh:mm}
    15.6,                    !- Value Until Time 54
    13:45,                   !- Time 55 {hh:mm}
    15.6,                    !- Value Until Time 55
    14:00,                   !- Time 56 {hh:mm}
    15.6,                    !- Value Until Time 56
    14:15,                   !- Time 57 {hh:mm}
    15.6,                    !- Value Until Time 57
    14:30,                   !- Time 58 {hh:mm}
    15.6,                    !- Value Until Time 58
    14:45,                   !- Time 59 {hh:mm}
    15.6,                    !- Value Until Time 59
    15:00,                   !- Time 60 {hh:mm}
    15.6,                    !- Value Until Time 60
    15:15,                   !- Time 61 {hh:mm}
    15.6,                    !- Value Until Time 61
    15:30,                   !- Time 62 {hh:mm}
    15.6,                    !- Value Until Time 62
    15:45,                   !- Time 63 {hh:mm}
    15.6,                    !- Value Until Time 63
    16:00,                   !- Time 64 {hh:mm}
    15.6,                    !- Value Until Time 64
    16:15,                   !- Time 65 {hh:mm}
    15.6,                    !- Value Until Time 65
    16:30,                   !- Time 66 {hh:mm}
    15.6,                    !- Value Until Time 66
    16:45,                   !- Time 67 {hh:mm}
    15.6,                    !- Value Until Time 67
    17:00,                   !- Time 68 {hh:mm}
    15.6,                    !- Value Until Time 68
    17:15,                   !- Time 69 {hh:mm}
    15.6,                    !- Value Until Time 69
    17:30,                   !- Time 70 {hh:mm}
    15.6,                    !- Value Until Time 70
    17:45,                   !- Time 71 {hh:mm}
    15.6,                    !- Value Until Time 71
    18:00,                   !- Time 72 {hh:mm}
    15.6,                    !- Value Until Time 72
    18:15,                   !- Time 73 {hh:mm}
    15.6,                    !- Value Until Time 73
    18:30,                   !- Time 74 {hh:mm}
    15.6,                    !- Value Until Time 74
    18:45,                   !- Time 75 {hh:mm}
    15.6,                    !- Value Until Time 75
    19:00,                   !- Time 76 {hh:mm}
    15.6,                    !- Value Until Time 76
    19:15,                   !- Time 77 {hh:mm}
    15.6,                    !- Value Until Time 77
    19:30,                   !- Time 78 {hh:mm}
    15.6,                    !- Value Until Time 78
    19:45,                   !- Time 79 {hh:mm}
    15.6,                    !- Value Until Time 79
    20:00,                   !- Time 80 {hh:mm}
    15.6,                    !- Value Until Time 80
    20:15,                   !- Time 81 {hh:mm}
    15.6,                    !- Value Until Time 81
    20:30,                   !- Time 82 {hh:mm}
    15.6,                    !- Value Until Time 82
    20:45,                   !- Time 83 {hh:mm}
    15.6,                    !- Value Until Time 83
    21:00,                   !- Time 84 {hh:mm}
    15.6,                    !- Value Until Time 84
    21:15,                   !- Time 85 {hh:mm}
    15.6,                    !- Value Until Time 85
    21:30,                   !- Time 86 {hh:mm}
    15.6,                    !- Value Until Time 86
    21:45,                   !- Time 87 {hh:mm}
    15.6,                    !- Value Until Time 87
    22:00,                   !- Time 88 {hh:mm}
    15.6,                    !- Value Until Time 88
    22:15,                   !- Time 89 {hh:mm}
    15.6,                    !- Value Until Time 89
    22:30,                   !- Time 90 {hh:mm}
    15.6,                    !- Value Until Time 90
    22:45,                   !- Time 91 {hh:mm}
    15.6,                    !- Value Until Time 91
    23:00,                   !- Time 92 {hh:mm}
    15.6,                    !- Value Until Time 92
    23:15,                   !- Time 93 {hh:mm}
    15.6,                    !- Value Until Time 93
    23:30,                   !- Time 94 {hh:mm}
    15.6,                    !- Value Until Time 94
    23:45,                   !- Time 95 {hh:mm}
    15.6,                    !- Value Until Time 95
    24:00,                   !- Time 96 {hh:mm}
    15.6;                    !- Value Until Time 96

Schedule:Day:Interval,
    Large Office HtgSetp Default,  !- Name
    Temperature,             !- Schedule Type Limits Name
    No,                      !- Interpolate to Timestep
    00:15,                   !- Time 1 {hh:mm}
    15.6000010173,           !- Value Until Time 1
    00:30,                   !- Time 2 {hh:mm}
    15.6000010173,           !- Value Until Time 2
    00:45,                   !- Time 3 {hh:mm}
    15.6000010173,           !- Value Until Time 3
    01:00,                   !- Time 4 {hh:mm}
    15.6000010173,           !- Value Until Time 4
    01:15,                   !- Time 5 {hh:mm}
    15.6000010173,           !- Value Until Time 5
    01:30,                   !- Time 6 {hh:mm}
    15.6000010173,           !- Value Until Time 6
    01:45,                   !- Time 7 {hh:mm}
    15.6000010173,           !- Value Until Time 7
    02:00,                   !- Time 8 {hh:mm}
    15.6000010173,           !- Value Until Time 8
    02:15,                   !- Time 9 {hh:mm}
    15.6000010173,           !- Value Until Time 9
    02:30,                   !- Time 10 {hh:mm}
    15.6000010173,           !- Value Until Time 10
    02:45,                   !- Time 11 {hh:mm}
    15.6000010173,           !- Value Until Time 11
    03:00,                   !- Time 12 {hh:mm}
    15.6000010173,           !- Value Until Time 12
    03:15,                   !- Time 13 {hh:mm}
    15.6000010173,           !- Value Until Time 13
    03:30,                   !- Time 14 {hh:mm}
    15.6000010173,           !- Value Until Time 14
    03:45,                   !- Time 15 {hh:mm}
    15.6000010173,           !- Value Until Time 15
    04:00,                   !- Time 16 {hh:mm}
    15.6000010173,           !- Value Until Time 16
    04:15,                   !- Time 17 {hh:mm}
    15.6000010173,           !- Value Until Time 17
    04:30,                   !- Time 18 {hh:mm}
    15.6000010173,           !- Value Until Time 18
    04:45,                   !- Time 19 {hh:mm}
    15.6000010173,           !- Value Until Time 19
    05:00,                   !- Time 20 {hh:mm}
    15.6000010173,           !- Value Until Time 20
    05:15,                   !- Time 21 {hh:mm}
    15.6000010173,           !- Value Until Time 21
    05:30,                   !- Time 22 {hh:mm}
    15.6000010173,           !- Value Until Time 22
    05:45,                   !- Time 23 {hh:mm}
    15.6000010173,           !- Value Until Time 23
    06:00,                   !- Time 24 {hh:mm}
    21.0000016954,           !- Value Until Time 24
    06:15,                   !- Time 25 {hh:mm}
    21.0000016954,           !- Value Until Time 25
    06:30,                   !- Time 26 {hh:mm}
    21.0000016954,           !- Value Until Time 26
    06:45,                   !- Time 27 {hh:mm}
    21.0000016954,           !- Value Until Time 27
    07:00,                   !- Time 28 {hh:mm}
    21.0000016954,           !- Value Until Time 28
    07:15,                   !- Time 29 {hh:mm}
    21.0000016954,           !- Value Until Time 29
    07:30,                   !- Time 30 {hh:mm}
    21.0000016954,           !- Value Until Time 30
    07:45,                   !- Time 31 {hh:mm}
    21.0000016954,           !- Value Until Time 31
    08:00,                   !- Time 32 {hh:mm}
    21.0000016954,           !- Value Until Time 32
    08:15,                   !- Time 33 {hh:mm}
    21.0000016954,           !- Value Until Time 33
    08:30,                   !- Time 34 {hh:mm}
    21.0000016954,           !- Value Until Time 34
    08:45,                   !- Time 35 {hh:mm}
    21.0000016954,           !- Value Until Time 35
    09:00,                   !- Time 36 {hh:mm}
    21.0000016954,           !- Value Until Time 36
    09:15,                   !- Time 37 {hh:mm}
    21.0000016954,           !- Value Until Time 37
    09:30,                   !- Time 38 {hh:mm}
    21.0000016954,           !- Value Until Time 38
    09:45,                   !- Time 39 {hh:mm}
    21.0000016954,           !- Value Until Time 39
    10:00,                   !- Time 40 {hh:mm}
    21.0000016954,           !- Value Until Time 40
    10:15,                   !- Time 41 {hh:mm}
    21.0000016954,           !- Value Until Time 41
    10:30,                   !- Time 42 {hh:mm}
    21.0000016954,           !- Value Until Time 42
    10:45,                   !- Time 43 {hh:mm}
    21.0000016954,           !- Value Until Time 43
    11:00,                   !- Time 44 {hh:mm}
    21.0000016954,           !- Value Until Time 44
    11:15,                   !- Time 45 {hh:mm}
    21.0000016954,           !- Value Until Time 45
    11:30,                   !- Time 46 {hh:mm}
    21.0000016954,           !- Value Until Time 46
    11:45,                   !- Time 47 {hh:mm}
    21.0000016954,           !- Value Until Time 47
    12:00,                   !- Time 48 {hh:mm}
    21.0000016954,           !- Value Until Time 48
    12:15,                   !- Time 49 {hh:mm}
    21.0000016954,           !- Value Until Time 49
    12:30,                   !- Time 50 {hh:mm}
    21.0000016954,           !- Value Until Time 50
    12:45,                   !- Time 51 {hh:mm}
    21.0000016954,           !- Value Until Time 51
    13:00,                   !- Time 52 {hh:mm}
    21.0000016954,           !- Value Until Time 52
    13:15,                   !- Time 53 {hh:mm}
    21.0000016954,           !- Value Until Time 53
    13:30,                   !- Time 54 {hh:mm}
    21.0000016954,           !- Value Until Time 54
    13:45,                   !- Time 55 {hh:mm}
    21.0000016954,           !- Value Until Time 55
    14:00,                   !- Time 56 {hh:mm}
    21.0000016954,           !- Value Until Time 56
    14:15,                   !- Time 57 {hh:mm}
    21.0000016954,           !- Value Until Time 57
    14:30,                   !- Time 58 {hh:mm}
    21.0000016954,           !- Value Until Time 58
    14:45,                   !- Time 59 {hh:mm}
    21.0000016954,           !- Value Until Time 59
    15:00,                   !- Time 60 {hh:mm}
    21.0000016954,           !- Value Until Time 60
    15:15,                   !- Time 61 {hh:mm}
    21.0000016954,           !- Value Until Time 61
    15:30,                   !- Time 62 {hh:mm}